0,   100.00, 33, 0, 0, 60.00     / PSS(R)E 33 RAW created by rawd33  THU, SEP 11 2025  22:38
THIS IS A SYNTHETIC ELECTRIC GRID DESIGNED BY RESEARCHERS AT
PROGRAM
110001,'EDNA 1 1    ', 138.0000,1,   7,  71,   7,1.03709,  -4.2424,1.10000,0.90000,1.10000,0.90000
110002,'EDNA 1 2    ',  13.8000,1,   7,  71,   7,1.03709,  -4.2424,1.10000,0.90000,1.10000,0.90000
110003,'EDNA 1 3    ',  13.8000,1,   7,  71,   7,1.03709,  -4.2424,1.10000,0.90000,1.10000,0.90000
110004,'EDNA 1 4    ',   1.0000,1,   7,  71,   7,1.03709,  -4.2424,1.10000,0.90000,1.10000,0.90000
110005,'LANE CITY ~1', 138.0000,1,   7,  71,   7,1.02186, -11.3845,1.10000,0.90000,1.10000,0.90000
110006,'LANE CITY ~2',  13.8000,1,   7,  71,   7,1.02186, -11.3845,1.10000,0.90000,1.10000,0.90000
110007,'LANE CITY ~3',  13.8000,1,   7,  71,   7,1.02186, -11.3845,1.10000,0.90000,1.10000,0.90000
110008,'LANE CITY ~4',   1.0000,1,   7,  71,   7,1.02186, -11.3845,1.10000,0.90000,1.10000,0.90000
110009,'MATAGORDA ~1', 138.0000,1,   7,  71,   7,1.02860,  -3.5588,1.10000,0.90000,1.10000,0.90000
110010,'MATAGORDA ~2',  13.8000,1,   7,  71,   7,1.02860,  -3.5588,1.10000,0.90000,1.10000,0.90000
110011,'MATAGORDA ~3',  13.8000,1,   7,  71,   7,1.02860,  -3.5588,1.10000,0.90000,1.10000,0.90000
110012,'MATAGORDA ~4',   1.0000,1,   7,  71,   7,1.02860,  -3.5588,1.10000,0.90000,1.10000,0.90000
110013,'HUNGERFORD~1', 138.0000,1,   7,  71,   7,1.01156, -12.6814,1.10000,0.90000,1.10000,0.90000
110014,'HUNGERFORD~2',  13.8000,1,   7,  71,   7,1.01156, -12.6814,1.10000,0.90000,1.10000,0.90000
110015,'HUNGERFORD~3',  13.8000,1,   7,  71,   7,1.01156, -12.6814,1.10000,0.90000,1.10000,0.90000
110016,'HUNGERFORD~4',   1.0000,1,   7,  71,   7,1.01156, -12.6814,1.10000,0.90000,1.10000,0.90000
110017,'EAST BERNA~1', 138.0000,1,   7,  71,   7,1.02644, -16.7384,1.10000,0.90000,1.10000,0.90000
110018,'EAST BERNA~2',  13.8000,1,   7,  71,   7,1.02644, -16.7384,1.10000,0.90000,1.10000,0.90000
110019,'EAST BERNA~3',  13.8000,1,   7,  71,   7,1.02644, -16.7384,1.10000,0.90000,1.10000,0.90000
110020,'EAST BERNA~4',   1.0000,1,   7,  71,   7,1.02644, -16.7384,1.10000,0.90000,1.10000,0.90000
110021,'EL CAMPO 1 1', 138.0000,1,   7,  71,   7,1.02517,  -6.8288,1.10000,0.90000,1.10000,0.90000
110022,'EL CAMPO 1 2',  22.0000,1,   7,  71,   7,1.02517,  -6.8288,1.10000,0.90000,1.10000,0.90000
110023,'EL CAMPO 1 3',  22.0000,1,   7,  71,   7,1.02517,  -6.8288,1.10000,0.90000,1.10000,0.90000
110024,'EL CAMPO 1 4',   1.0000,1,   7,  71,   7,1.02517,  -6.8288,1.10000,0.90000,1.10000,0.90000
110025,'EL CAMPO 2 1', 138.0000,1,   7,  71,   7,1.02607,  -6.8317,1.10000,0.90000,1.10000,0.90000
110026,'EL CAMPO 2 2',  13.8000,1,   7,  71,   7,1.02607,  -6.8317,1.10000,0.90000,1.10000,0.90000
110027,'EL CAMPO 2 3',  13.8000,1,   7,  71,   7,1.02607,  -6.8317,1.10000,0.90000,1.10000,0.90000
110028,'EL CAMPO 2 4',   1.0000,1,   7,  71,   7,1.02607,  -6.8317,1.10000,0.90000,1.10000,0.90000
110029,'WHARTON 1 1 ', 138.0000,1,   7,  71,   7,1.02792,  -8.7228,1.10000,0.90000,1.10000,0.90000
110030,'WHARTON 1 2 ',  13.8000,1,   7,  71,   7,1.02792,  -8.7228,1.10000,0.90000,1.10000,0.90000
110031,'WHARTON 1 3 ',  13.8000,1,   7,  71,   7,1.02792,  -8.7228,1.10000,0.90000,1.10000,0.90000
110032,'WHARTON 1 4 ',   1.0000,1,   7,  71,   7,1.02792,  -8.7228,1.10000,0.90000,1.10000,0.90000
110033,'CEDAR LANE~1', 138.0000,1,   7,  71,   7,1.01648, -10.4397,1.10000,0.90000,1.10000,0.90000
110034,'CEDAR LANE~2',  13.8000,1,   7,  71,   7,1.01648, -10.4397,1.10000,0.90000,1.10000,0.90000
110035,'CEDAR LANE~3',  13.8000,1,   7,  71,   7,1.01648, -10.4397,1.10000,0.90000,1.10000,0.90000
110036,'CEDAR LANE~4',   1.0000,1,   7,  71,   7,1.01648, -10.4397,1.10000,0.90000,1.10000,0.90000
110037,'NADA 1 1    ', 138.0000,1,   7,  71,   7,1.03246,  -7.9271,1.10000,0.90000,1.10000,0.90000
110038,'NADA 1 2    ',  13.8000,1,   7,  71,   7,1.03246,  -7.9271,1.10000,0.90000,1.10000,0.90000
110039,'NADA 1 3    ',  13.8000,1,   7,  71,   7,1.03246,  -7.9271,1.10000,0.90000,1.10000,0.90000
110040,'NADA 1 4    ',   1.0000,1,   7,  71,   7,1.03246,  -7.9271,1.10000,0.90000,1.10000,0.90000
110041,'EGYPT 1 1   ', 138.0000,1,   7,  71,   7,1.03060,  -5.8984,1.10000,0.90000,1.10000,0.90000
110042,'EGYPT 1 2   ',  24.0000,1,   7,  71,   7,1.03060,  -5.8984,1.10000,0.90000,1.10000,0.90000
110043,'EGYPT 1 3   ',  24.0000,1,   7,  71,   7,1.03060,  -5.8984,1.10000,0.90000,1.10000,0.90000
110044,'EGYPT 1 4   ',   1.0000,1,   7,  71,   7,1.03060,  -5.8984,1.10000,0.90000,1.10000,0.90000
110045,'LOUISE 1 1  ', 138.0000,1,   7,  71,   7,1.02873,  -8.1891,1.10000,0.90000,1.10000,0.90000
110046,'LOUISE 1 2  ',  13.8000,1,   7,  71,   7,1.02873,  -8.1891,1.10000,0.90000,1.10000,0.90000
110047,'LOUISE 1 3  ',  13.8000,1,   7,  71,   7,1.02873,  -8.1891,1.10000,0.90000,1.10000,0.90000
110048,'LOUISE 1 4  ',   1.0000,1,   7,  71,   7,1.02873,  -8.1891,1.10000,0.90000,1.10000,0.90000
110049,'GANADO 1 1  ', 138.0000,1,   7,  71,   7,1.02468,  -5.8852,1.10000,0.90000,1.10000,0.90000
110050,'GANADO 1 2  ',  18.0000,1,   7,  71,   7,1.02468,  -5.8852,1.10000,0.90000,1.10000,0.90000
110051,'GANADO 1 3  ',  18.0000,1,   7,  71,   7,1.02468,  -5.8852,1.10000,0.90000,1.10000,0.90000
110052,'GANADO 1 4  ',   1.0000,1,   7,  71,   7,1.02468,  -5.8852,1.10000,0.90000,1.10000,0.90000
110053,'LOUISE 2 1  ', 138.0000,1,   7,  71,   7,1.02614,  -6.4155,1.10000,0.90000,1.10000,0.90000
110054,'LOUISE 2 2  ',  13.8000,1,   7,  71,   7,1.02614,  -6.4155,1.10000,0.90000,1.10000,0.90000
110055,'LOUISE 2 3  ',  13.8000,1,   7,  71,   7,1.02614,  -6.4155,1.10000,0.90000,1.10000,0.90000
110056,'LOUISE 2 4  ',   1.0000,1,   7,  71,   7,1.02614,  -6.4155,1.10000,0.90000,1.10000,0.90000
110057,'LOUISE 3 1  ', 138.0000,1,   7,  71,   7,1.02739,  -7.2231,1.10000,0.90000,1.10000,0.90000
110058,'LOUISE 3 2  ',  24.0000,1,   7,  71,   7,1.02739,  -7.2231,1.10000,0.90000,1.10000,0.90000
110059,'LOUISE 3 3  ',  24.0000,1,   7,  71,   7,1.02739,  -7.2231,1.10000,0.90000,1.10000,0.90000
110060,'LOUISE 3 4  ',   1.0000,1,   7,  71,   7,1.02739,  -7.2231,1.10000,0.90000,1.10000,0.90000
110061,'NADA 2 1    ', 138.0000,1,   7,  71,   7,1.02771,  -6.5305,1.10000,0.90000,1.10000,0.90000
110062,'NADA 2 2    ',  18.0000,1,   7,  71,   7,1.02771,  -6.5305,1.10000,0.90000,1.10000,0.90000
110063,'NADA 2 3    ',  18.0000,1,   7,  71,   7,1.02771,  -6.5305,1.10000,0.90000,1.10000,0.90000
110064,'NADA 2 4    ',   1.0000,1,   7,  71,   7,1.02771,  -6.5305,1.10000,0.90000,1.10000,0.90000
110065,'KENDLETON ~1', 138.0000,1,   7,  71,   7,1.02309, -12.1087,1.10000,0.90000,1.10000,0.90000
110066,'KENDLETON ~2',  24.0000,1,   7,  71,   7,1.02309, -12.1087,1.10000,0.90000,1.10000,0.90000
110067,'KENDLETON ~3',  24.0000,1,   7,  71,   7,1.02309, -12.1087,1.10000,0.90000,1.10000,0.90000
110068,'KENDLETON ~4',   1.0000,1,   7,  71,   7,1.02309, -12.1087,1.10000,0.90000,1.10000,0.90000
110069,'PLEDGER 1 1 ', 138.0000,1,   7,  71,   7,1.02181,  -9.6933,1.10000,0.90000,1.10000,0.90000
110070,'PLEDGER 1 2 ',  13.8000,1,   7,  71,   7,1.02181,  -9.6933,1.10000,0.90000,1.10000,0.90000
110071,'PLEDGER 1 3 ',  13.8000,1,   7,  71,   7,1.02181,  -9.6933,1.10000,0.90000,1.10000,0.90000
110072,'PLEDGER 1 4 ',   1.0000,1,   7,  71,   7,1.02181,  -9.6933,1.10000,0.90000,1.10000,0.90000
110073,'DANEVANG 1 1', 138.0000,1,   7,  71,   7,1.02560,  -7.1710,1.10000,0.90000,1.10000,0.90000
110074,'DANEVANG 1 2',  13.8000,1,   7,  71,   7,1.02560,  -7.1710,1.10000,0.90000,1.10000,0.90000
110075,'DANEVANG 1 3',  13.8000,1,   7,  71,   7,1.02560,  -7.1710,1.10000,0.90000,1.10000,0.90000
110076,'DANEVANG 1 4',   1.0000,1,   7,  71,   7,1.02560,  -7.1710,1.10000,0.90000,1.10000,0.90000
110077,'DANEVANG 2 1', 138.0000,1,   7,  71,   7,1.02176,  -8.0173,1.10000,0.90000,1.10000,0.90000
110078,'DANEVANG 2 2',  18.0000,1,   7,  71,   7,1.02176,  -8.0173,1.10000,0.90000,1.10000,0.90000
110079,'DANEVANG 2 3',  18.0000,1,   7,  71,   7,1.02176,  -8.0173,1.10000,0.90000,1.10000,0.90000
110080,'DANEVANG 2 4',   1.0000,1,   7,  71,   7,1.02176,  -8.0173,1.10000,0.90000,1.10000,0.90000
110081,'ELMATON 1 1 ', 138.0000,1,   7,  71,   7,1.01461,  -4.1395,1.10000,0.90000,1.10000,0.90000
110082,'ELMATON 1 2 ',  24.0000,1,   7,  71,   7,1.01461,  -4.1395,1.10000,0.90000,1.10000,0.90000
110083,'ELMATON 1 3 ',  24.0000,1,   7,  71,   7,1.01461,  -4.1395,1.10000,0.90000,1.10000,0.90000
110084,'ELMATON 1 4 ',   1.0000,1,   7,  71,   7,1.01461,  -4.1395,1.10000,0.90000,1.10000,0.90000
110085,'BAY CITY 1 1', 138.0000,1,   7,  71,   7,1.02839,  -9.3200,1.10000,0.90000,1.10000,0.90000
110086,'BAY CITY 1 2',  18.0000,1,   7,  71,   7,1.02839,  -9.3200,1.10000,0.90000,1.10000,0.90000
110087,'BAY CITY 1 3',  18.0000,1,   7,  71,   7,1.02839,  -9.3200,1.10000,0.90000,1.10000,0.90000
110088,'BAY CITY 1 4',   1.0000,1,   7,  71,   7,1.02839,  -9.3200,1.10000,0.90000,1.10000,0.90000
110089,'PALACIOS 1 1', 138.0000,1,   7,  71,   7,1.02394,  -2.3641,1.10000,0.90000,1.10000,0.90000
110090,'PALACIOS 1 2',  18.0000,1,   7,  71,   7,1.02394,  -2.3641,1.10000,0.90000,1.10000,0.90000
110091,'PALACIOS 1 3',  18.0000,1,   7,  71,   7,1.02394,  -2.3641,1.10000,0.90000,1.10000,0.90000
110092,'PALACIOS 1 4',   1.0000,1,   7,  71,   7,1.02394,  -2.3641,1.10000,0.90000,1.10000,0.90000
110093,'MIDFIELD 1 1', 138.0000,1,   7,  71,   7,1.00954,  -3.5363,1.10000,0.90000,1.10000,0.90000
110094,'MIDFIELD 1 2',  13.8000,1,   7,  71,   7,0.96506,  -6.9738,1.10000,0.90000,1.10000,0.90000
110095,'MIDFIELD 1 3',  13.8000,1,   7,  71,   7,0.96506,  -6.9738,1.10000,0.90000,1.10000,0.90000
110096,'MIDFIELD 1 4',   1.0000,1,   7,  71,   7,0.96506,  -6.9738,1.10000,0.90000,1.10000,0.90000
110097,'ELMATON 2 1 ', 138.0000,1,   7,  71,   7,1.01813,  -4.5315,1.10000,0.90000,1.10000,0.90000
110098,'ELMATON 2 2 ',  13.8000,1,   7,  71,   7,1.01813,  -4.5315,1.10000,0.90000,1.10000,0.90000
110099,'ELMATON 2 3 ',  13.8000,1,   7,  71,   7,1.01813,  -4.5315,1.10000,0.90000,1.10000,0.90000
110100,'ELMATON 2 4 ',   1.0000,1,   7,  71,   7,1.01813,  -4.5315,1.10000,0.90000,1.10000,0.90000
110101,'PALACIOS 2 1', 138.0000,1,   7,  71,   7,1.03372,  -1.6393,1.10000,0.90000,1.10000,0.90000
110102,'PALACIOS 2 2',  13.8000,1,   7,  71,   7,1.03372,  -1.6393,1.10000,0.90000,1.10000,0.90000
110103,'PALACIOS 2 3',  13.8000,1,   7,  71,   7,1.03372,  -1.6393,1.10000,0.90000,1.10000,0.90000
110104,'PALACIOS 2 4',   1.0000,1,   7,  71,   7,1.03372,  -1.6393,1.10000,0.90000,1.10000,0.90000
110105,'MATAGORDA ~5', 138.0000,1,   7,  71,   7,1.02797,  -3.3256,1.10000,0.90000,1.10000,0.90000
110106,'MATAGORDA ~6',  18.0000,1,   7,  71,   7,1.02797,  -3.3256,1.10000,0.90000,1.10000,0.90000
110107,'MATAGORDA ~7',  18.0000,1,   7,  71,   7,1.02797,  -3.3256,1.10000,0.90000,1.10000,0.90000
110108,'MATAGORDA ~8',   1.0000,1,   7,  71,   7,1.02797,  -3.3256,1.10000,0.90000,1.10000,0.90000
110109,'SWEENY 1 1  ', 138.0000,1,   7,  71,   7,1.03568, -10.6329,1.10000,0.90000,1.10000,0.90000
110110,'SWEENY 1 2  ',  13.8000,1,   7,  71,   7,1.03568, -10.6329,1.10000,0.90000,1.10000,0.90000
110111,'SWEENY 1 3  ',  13.8000,1,   7,  71,   7,1.03568, -10.6329,1.10000,0.90000,1.10000,0.90000
110112,'SWEENY 1 4  ',   1.0000,1,   7,  71,   7,1.03568, -10.6329,1.10000,0.90000,1.10000,0.90000
110113,'EDNA 2 1    ', 138.0000,1,   7,  71,   7,1.03620,  -3.6927,1.10000,0.90000,1.10000,0.90000
110114,'EDNA 2 2    ',  18.0000,1,   7,  71,   7,1.03620,  -3.6927,1.10000,0.90000,1.10000,0.90000
110115,'EDNA 2 3    ',  18.0000,1,   7,  71,   7,1.03620,  -3.6927,1.10000,0.90000,1.10000,0.90000
110116,'EDNA 2 4    ',   1.0000,1,   7,  71,   7,1.03620,  -3.6927,1.10000,0.90000,1.10000,0.90000
110117,'MARKHAM 1 1 ', 138.0000,1,   7,  71,   7,1.01379,  -4.6545,1.10000,0.90000,1.10000,0.90000
110118,'ALTAIR 1 1  ', 138.0000,1,   7,  71,   7,1.02814,  -8.9766,1.10000,0.90000,1.10000,0.90000
110119,'CEDAR LANE~5', 138.0000,1,   7,  71,   7,1.01640,  -8.7044,1.10000,0.90000,1.10000,0.90000
110120,'BAY CITY 2 1', 138.0000,1,   7,  71,   7,1.02475,  -5.8686,1.10000,0.90000,1.10000,0.90000
110121,'WADSWORTH ~1', 138.0000,1,   7,  71,   7,1.02214,  -6.3088,1.10000,0.90000,1.10000,0.90000
110122,'LA WARD 1 1 ', 138.0000,1,   7,  71,   7,1.02421,  -0.7464,1.10000,0.90000,1.10000,0.90000
110123,'HUNGERFORD~5', 138.0000,1,   7,  71,   7,1.00615, -13.4232,1.10000,0.90000,1.10000,0.90000
110124,'GARWOOD 1 1 ', 138.0000,1,   7,  71,   7,1.03781,  -7.9439,1.10000,0.90000,1.10000,0.90000
110125,'LANE CITY ~5', 138.0000,1,   7,  71,   7,1.02252,  -9.8564,1.10000,0.90000,1.10000,0.90000
110126,'BAY CITY 3 1', 345.0000,1,   7,  71,   7,1.03530,  -2.4440,1.10000,0.90000,1.10000,0.90000
110127,'BAY CITY 3 2', 138.0000,1,   7,  71,   7,1.02695,  -5.3692,1.10000,0.90000,1.10000,0.90000
110128,'EL CAMPO 3 1', 138.0000,1,   7,  71,   7,1.02445,  -7.1969,1.10000,0.90000,1.10000,0.90000
110129,'BROOKSHIRE~1', 138.0000,1,   7,  71,   7,1.03048, -19.0116,1.10000,0.90000,1.10000,0.90000
110130,'EAGLE LAKE~1', 138.0000,1,   7,  71,   7,1.02279, -10.7476,1.10000,0.90000,1.10000,0.90000
110131,'SEALY 1 1   ', 138.0000,1,   7,  71,   7,1.03520, -16.1641,1.10000,0.90000,1.10000,0.90000
110132,'WHARTON 2 1 ', 138.0000,1,   7,  71,   7,1.02084, -11.4189,1.10000,0.90000,1.10000,0.90000
110133,'GANADO 2 1  ', 138.0000,1,   7,  71,   7,1.02422,  -4.9162,1.10000,0.90000,1.10000,0.90000
110134,'EL CAMPO 4 1', 138.0000,1,   7,  71,   7,1.02483,  -7.0773,1.10000,0.90000,1.10000,0.90000
110135,'MARKHAM 2 1 ', 138.0000,1,   7,  71,   7,1.01994,  -7.7755,1.10000,0.90000,1.10000,0.90000
110136,'PALACIOS 3 1', 138.0000,1,   7,  71,   7,1.02465,  -1.2008,1.10000,0.90000,1.10000,0.90000
110137,'PATTISON 1 1', 138.0000,1,   7,  71,   7,1.02883, -16.8949,1.10000,0.90000,1.10000,0.90000
110138,'BAY CITY 4 1', 138.0000,1,   7,  71,   7,1.01909,  -7.2071,1.10000,0.90000,1.10000,0.90000
110139,'EDNA 3 1    ', 138.0000,1,   7,  71,   7,1.03554,  -3.2344,1.10000,0.90000,1.10000,0.90000
110140,'BROOKSHIRE~2', 138.0000,1,   7,  71,   7,1.02964, -17.4922,1.10000,0.90000,1.10000,0.90000
110141,'SAN FELIPE~1', 138.0000,1,   7,  71,   7,1.03424, -17.6135,1.10000,0.90000,1.10000,0.90000
110142,'BROOKSHIRE~3', 138.0000,1,   7,  71,   7,1.02357, -18.7748,1.10000,0.90000,1.10000,0.90000
110143,'SEALY 2 1   ', 138.0000,1,   7,  71,   7,1.03392, -17.5724,1.10000,0.90000,1.10000,0.90000
110144,'SAN FELIPE~2', 138.0000,1,   7,  71,   7,1.03610, -18.4653,1.10000,0.90000,1.10000,0.90000
110145,'PRAIRIE VI~1', 138.0000,1,   7,  71,   7,1.01837, -14.3353,1.10000,0.90000,1.10000,0.90000
110146,'LISSIE 1 1  ', 138.0000,1,   7,  71,   7,1.02407, -14.1070,1.10000,0.90000,1.10000,0.90000
110147,'BROOKSHIRE~4', 138.0000,1,   7,  71,   7,1.02637, -19.3367,1.10000,0.90000,1.10000,0.90000
110148,'BROOKSHIRE~5', 138.0000,1,   7,  71,   7,1.02736, -17.3226,1.10000,0.90000,1.10000,0.90000
110149,'BROOKSHIRE~6', 138.0000,1,   7,  71,   7,1.03210, -17.5958,1.10000,0.90000,1.10000,0.90000
110150,'HOCKLEY 1 1 ', 138.0000,1,   7,  71,   7,1.03073, -18.8531,1.10000,0.90000,1.10000,0.90000
110151,'EAGLE LAKE~2', 138.0000,1,   7,  71,   7,1.02110, -11.1309,1.10000,0.90000,1.10000,0.90000
110152,'BROOKSHIRE~7', 138.0000,1,   7,  71,   7,1.02832, -17.1114,1.10000,0.90000,1.10000,0.90000
110153,'HOCKLEY 2 1 ', 138.0000,1,   7,  71,   7,1.02654, -19.6508,1.10000,0.90000,1.10000,0.90000
110154,'WALLER 1 1  ', 138.0000,1,   7,  71,   7,1.03265, -12.4654,1.10000,0.90000,1.10000,0.90000
110155,'WALLER 2 1  ', 138.0000,1,   7,  71,   7,1.03076, -13.4550,1.10000,0.90000,1.10000,0.90000
110156,'PATTISON 2 1', 138.0000,1,   7,  71,   7,1.03045, -16.7525,1.10000,0.90000,1.10000,0.90000
110157,'WALLIS 1 1  ', 138.0000,1,   7,  71,   7,1.02375, -15.8760,1.10000,0.90000,1.10000,0.90000
110158,'KATY 1 1    ', 138.0000,1,   7,  71,   7,1.02350, -20.9678,1.10000,0.90000,1.10000,0.90000
110159,'SEALY 3 1   ', 138.0000,1,   7,  71,   7,1.03503, -16.7155,1.10000,0.90000,1.10000,0.90000
110160,'SEALY 4 1   ', 345.0000,1,   7,  71,   7,1.03862, -11.5766,1.10000,0.90000,1.10000,0.90000
110161,'SEALY 4 2   ', 138.0000,1,   7,  71,   7,1.03853, -14.6979,1.10000,0.90000,1.10000,0.90000
110162,'GALENA PAR~1', 138.0000,1,   7,  71,   7,1.02386, -24.8193,1.10000,0.90000,1.10000,0.90000
110163,'GALENA PAR~2',  69.0000,1,   7,  71,   7,1.01890, -27.2645,1.10000,0.90000,1.10000,0.90000
110164,'HUMBLE 1 1  ',  69.0000,1,   7,  71,   7,1.00954, -27.8732,1.10000,0.90000,1.10000,0.90000
110165,'HUMBLE 2 1  ', 138.0000,1,   7,  71,   7,1.01343, -24.0833,1.10000,0.90000,1.10000,0.90000
110166,'HUMBLE 2 2  ',  69.0000,1,   7,  71,   7,1.01908, -27.3131,1.10000,0.90000,1.10000,0.90000
110167,'HUMBLE 3 1  ',  69.0000,1,   7,  71,   7,1.01627, -27.9969,1.10000,0.90000,1.10000,0.90000
110168,'HOUSTON 1 1 ',  69.0000,1,   7,  71,   7,1.00703, -28.4812,1.10000,0.90000,1.10000,0.90000
110169,'HUMBLE 4 1  ', 138.0000,1,   7,  71,   7,1.01980, -25.9352,1.10000,0.90000,1.10000,0.90000
110170,'HUMBLE 4 2  ',  69.0000,1,   7,  71,   7,1.02550, -27.9649,1.10000,0.90000,1.10000,0.90000
110171,'HUMBLE 5 1  ',  69.0000,1,   7,  71,   7,1.01547, -27.7090,1.10000,0.90000,1.10000,0.90000
110172,'HUMBLE 6 1  ', 138.0000,1,   7,  71,   7,1.00473, -25.7552,1.10000,0.90000,1.10000,0.90000
110173,'HUMBLE 6 2  ',  69.0000,1,   7,  71,   7,1.00732, -27.8240,1.10000,0.90000,1.10000,0.90000
110174,'HOUSTON 2 1 ', 138.0000,1,   7,  71,   7,1.01986, -25.5730,1.10000,0.90000,1.10000,0.90000
110175,'HOUSTON 2 2 ',  69.0000,1,   7,  71,   7,1.00459, -28.2319,1.10000,0.90000,1.10000,0.90000
110176,'HUMBLE 7 1  ', 138.0000,1,   7,  71,   7,1.00953, -25.0396,1.10000,0.90000,1.10000,0.90000
110177,'HUMBLE 7 2  ',  69.0000,1,   7,  71,   7,1.01207, -27.3576,1.10000,0.90000,1.10000,0.90000
110178,'HUMBLE 8 1  ',  69.0000,1,   7,  71,   7,1.02891, -28.1617,1.10000,0.90000,1.10000,0.90000
110179,'HOUSTON 3 1 ',  69.0000,1,   7,  71,   7,1.01180, -28.0805,1.10000,0.90000,1.10000,0.90000
110180,'KATY 2 1    ',  69.0000,1,   7,  71,   7,1.02123, -25.4872,1.10000,0.90000,1.10000,0.90000
110181,'CYPRESS 1 1 ',  69.0000,1,   7,  71,   7,1.02101, -25.0274,1.10000,0.90000,1.10000,0.90000
110182,'KATY 3 1    ',  69.0000,1,   7,  71,   7,1.01837, -25.6764,1.10000,0.90000,1.10000,0.90000
110183,'KATY 4 1    ',  69.0000,1,   7,  71,   7,1.02366, -25.4602,1.10000,0.90000,1.10000,0.90000
110184,'KATY 5 1    ',  69.0000,1,   7,  71,   7,1.02190, -25.4572,1.10000,0.90000,1.10000,0.90000
110185,'KATY 6 1    ',  69.0000,1,   7,  71,   7,1.02928, -24.2873,1.10000,0.90000,1.10000,0.90000
110186,'KATY 7 1    ',  69.0000,1,   7,  71,   7,1.02836, -24.6282,1.10000,0.90000,1.10000,0.90000
110187,'KATY 8 1    ',  69.0000,1,   7,  71,   7,1.02376, -25.4376,1.10000,0.90000,1.10000,0.90000
110188,'KATY 9 1    ', 138.0000,1,   7,  71,   7,1.02603, -21.4787,1.10000,0.90000,1.10000,0.90000
110189,'KATY 9 2    ',  69.0000,1,   7,  71,   7,1.03376, -24.6066,1.10000,0.90000,1.10000,0.90000
110190,'KATY 9 3    ',  18.0000,1,   7,  71,   7,1.02749, -22.1379,1.10000,0.90000,1.10000,0.90000
110191,'KATY 9 4    ',   1.0000,1,   7,  71,   7,1.02749, -22.1379,1.10000,0.90000,1.10000,0.90000
110192,'CYPRESS 2 1 ',  69.0000,1,   7,  71,   7,1.02168, -25.4123,1.10000,0.90000,1.10000,0.90000
110193,'KATY 10 1   ',  69.0000,1,   7,  71,   7,1.01983, -25.0463,1.10000,0.90000,1.10000,0.90000
110194,'CYPRESS 3 1 ',  69.0000,1,   7,  71,   7,1.02706, -25.5017,1.10000,0.90000,1.10000,0.90000
110195,'KATY 11 1   ',  69.0000,1,   7,  71,   7,1.03231, -25.4261,1.10000,0.90000,1.10000,0.90000
110196,'KATY 12 1   ',  69.0000,1,   7,  71,   7,1.02532, -25.4351,1.10000,0.90000,1.10000,0.90000
110197,'KATY 13 1   ',  69.0000,1,   7,  71,   7,1.02101, -24.9488,1.10000,0.90000,1.10000,0.90000
110198,'CYPRESS 4 1 ',  69.0000,1,   7,  71,   7,1.01796, -25.2238,1.10000,0.90000,1.10000,0.90000
110199,'KATY 14 1   ',  69.0000,1,   7,  71,   7,1.02964, -24.7124,1.10000,0.90000,1.10000,0.90000
110200,'CYPRESS 5 1 ',  69.0000,1,   7,  71,   7,1.02072, -25.3872,1.10000,0.90000,1.10000,0.90000
110201,'KATY 15 1   ',  69.0000,1,   7,  71,   7,1.02007, -24.9749,1.10000,0.90000,1.10000,0.90000
110202,'KATY 16 1   ',  69.0000,1,   7,  71,   7,1.02085, -25.3043,1.10000,0.90000,1.10000,0.90000
110203,'KATY 17 1   ',  69.0000,1,   7,  71,   7,1.03346, -24.9699,1.10000,0.90000,1.10000,0.90000
110204,'CYPRESS 6 1 ',  69.0000,1,   7,  71,   7,1.02970, -25.2401,1.10000,0.90000,1.10000,0.90000
110205,'CYPRESS 7 1 ',  69.0000,1,   7,  71,   7,1.02263, -25.3652,1.10000,0.90000,1.10000,0.90000
110206,'KATY 18 1   ',  69.0000,1,   7,  71,   7,1.02922, -24.3730,1.10000,0.90000,1.10000,0.90000
110207,'CYPRESS 8 1 ',  69.0000,1,   7,  71,   7,1.02930, -25.4169,1.10000,0.90000,1.10000,0.90000
110208,'CYPRESS 9 1 ',  69.0000,1,   7,  71,   7,1.01977, -25.1968,1.10000,0.90000,1.10000,0.90000
110209,'KATY 19 1   ',  69.0000,1,   7,  71,   7,1.02753, -25.2484,1.10000,0.90000,1.10000,0.90000
110210,'KATY 20 1   ',  69.0000,1,   7,  71,   7,1.02689, -24.9366,1.10000,0.90000,1.10000,0.90000
110211,'CYPRESS 10 1',  69.0000,1,   7,  71,   7,1.02244, -24.7249,1.10000,0.90000,1.10000,0.90000
110212,'KATY 21 1   ', 138.0000,1,   7,  71,   7,1.00430, -19.4823,1.10000,0.90000,1.10000,0.90000
110213,'KATY 21 2   ',  69.0000,1,   7,  71,   7,1.02943, -24.2443,1.10000,0.90000,1.10000,0.90000
110214,'KATY 22 1   ',  69.0000,1,   7,  71,   7,1.02670, -24.6091,1.10000,0.90000,1.10000,0.90000
110215,'KATY 23 1   ',  69.0000,1,   7,  71,   7,1.02907, -24.6729,1.10000,0.90000,1.10000,0.90000
110216,'CYPRESS 11 1',  69.0000,1,   7,  71,   7,1.02047, -25.0907,1.10000,0.90000,1.10000,0.90000
110217,'CYPRESS 12 1',  69.0000,1,   7,  71,   7,1.02480, -24.5632,1.10000,0.90000,1.10000,0.90000
110218,'KATY 24 1   ',  69.0000,1,   7,  71,   7,1.02973, -24.6073,1.10000,0.90000,1.10000,0.90000
110219,'KATY 25 1   ',  69.0000,1,   7,  71,   7,1.02893, -24.4936,1.10000,0.90000,1.10000,0.90000
110220,'KATY 26 1   ',  69.0000,1,   7,  71,   7,1.02985, -24.7172,1.10000,0.90000,1.10000,0.90000
110221,'KATY 27 1   ',  69.0000,1,   7,  71,   7,1.03331, -24.5629,1.10000,0.90000,1.10000,0.90000
110222,'CYPRESS 13 1',  69.0000,1,   7,  71,   7,1.03423, -25.0015,1.10000,0.90000,1.10000,0.90000
110223,'KATY 28 1   ',  69.0000,1,   7,  71,   7,1.02977, -24.8449,1.10000,0.90000,1.10000,0.90000
110224,'KATY 29 1   ',  69.0000,1,   7,  71,   7,1.03374, -25.5345,1.10000,0.90000,1.10000,0.90000
110225,'KATY 30 1   ',  69.0000,1,   7,  71,   7,1.03155, -24.8872,1.10000,0.90000,1.10000,0.90000
110226,'KATY 31 1   ',  69.0000,1,   7,  71,   7,1.02854, -24.4878,1.10000,0.90000,1.10000,0.90000
110227,'KATY 32 1   ',  69.0000,1,   7,  71,   7,1.02977, -24.4030,1.10000,0.90000,1.10000,0.90000
110228,'KATY 33 1   ',  69.0000,1,   7,  71,   7,1.02715, -24.2306,1.10000,0.90000,1.10000,0.90000
110229,'KATY 34 1   ',  69.0000,1,   7,  71,   7,1.02447, -25.3583,1.10000,0.90000,1.10000,0.90000
110230,'KATY 35 1   ',  69.0000,1,   7,  71,   7,1.02658, -25.3262,1.10000,0.90000,1.10000,0.90000
110231,'CYPRESS 14 1',  69.0000,1,   7,  71,   7,1.01999, -24.6227,1.10000,0.90000,1.10000,0.90000
110232,'CYPRESS 15 1',  69.0000,1,   7,  71,   7,1.01914, -24.7076,1.10000,0.90000,1.10000,0.90000
110233,'CYPRESS 16 1',  69.0000,1,   7,  71,   7,1.02138, -24.4458,1.10000,0.90000,1.10000,0.90000
110234,'CYPRESS 17 1',  69.0000,1,   7,  71,   7,1.02750, -24.9542,1.10000,0.90000,1.10000,0.90000
110235,'CYPRESS 18 1',  69.0000,1,   7,  71,   7,1.01877, -24.7992,1.10000,0.90000,1.10000,0.90000
110236,'CYPRESS 19 1',  69.0000,1,   7,  71,   7,1.02432, -24.4799,1.10000,0.90000,1.10000,0.90000
110237,'CYPRESS 20 1',  69.0000,1,   7,  71,   7,1.02374, -25.1901,1.10000,0.90000,1.10000,0.90000
110238,'CYPRESS 21 1',  69.0000,1,   7,  71,   7,1.02600, -24.4154,1.10000,0.90000,1.10000,0.90000
110239,'KATY 36 1   ',  69.0000,1,   7,  71,   7,1.02829, -24.3491,1.10000,0.90000,1.10000,0.90000
110240,'KATY 37 1   ',  69.0000,1,   7,  71,   7,1.02907, -24.5635,1.10000,0.90000,1.10000,0.90000
110241,'KATY 38 1   ',  69.0000,1,   7,  71,   7,1.03173, -24.8551,1.10000,0.90000,1.10000,0.90000
110242,'KATY 39 1   ',  69.0000,1,   7,  71,   7,1.03097, -24.7083,1.10000,0.90000,1.10000,0.90000
110243,'KATY 40 1   ',  69.0000,1,   7,  71,   7,1.03230, -24.5548,1.10000,0.90000,1.10000,0.90000
110244,'KATY 41 1   ',  69.0000,1,   7,  71,   7,1.03277, -24.6820,1.10000,0.90000,1.10000,0.90000
110245,'KATY 42 1   ',  69.0000,1,   7,  71,   7,1.02510, -24.8914,1.10000,0.90000,1.10000,0.90000
110246,'KATY 43 1   ',  69.0000,1,   7,  71,   7,1.02433, -24.9562,1.10000,0.90000,1.10000,0.90000
110247,'KATY 44 1   ',  69.0000,1,   7,  71,   7,1.03169, -24.7833,1.10000,0.90000,1.10000,0.90000
110248,'KATY 45 1   ',  69.0000,1,   7,  71,   7,1.02867, -24.8529,1.10000,0.90000,1.10000,0.90000
110249,'KATY 46 1   ',  69.0000,1,   7,  71,   7,1.03124, -24.7249,1.10000,0.90000,1.10000,0.90000
110250,'KATY 47 1   ',  69.0000,1,   7,  71,   7,1.02498, -24.5509,1.10000,0.90000,1.10000,0.90000
110251,'KATY 48 1   ',  69.0000,1,   7,  71,   7,1.02612, -24.8029,1.10000,0.90000,1.10000,0.90000
110252,'KATY 49 1   ',  69.0000,1,   7,  71,   7,1.03672, -25.3300,1.10000,0.90000,1.10000,0.90000
110253,'KATY 50 1   ',  69.0000,1,   7,  71,   7,1.02968, -25.1832,1.10000,0.90000,1.10000,0.90000
110254,'KATY 51 1   ',  69.0000,1,   7,  71,   7,1.03279, -25.0736,1.10000,0.90000,1.10000,0.90000
110255,'KATY 52 1   ',  69.0000,1,   7,  71,   7,1.02613, -25.0494,1.10000,0.90000,1.10000,0.90000
110256,'KATY 53 1   ',  69.0000,1,   7,  71,   7,1.02671, -25.1792,1.10000,0.90000,1.10000,0.90000
110257,'KATY 54 1   ',  69.0000,1,   7,  71,   7,1.02459, -24.7135,1.10000,0.90000,1.10000,0.90000
110258,'KATY 55 1   ',  69.0000,1,   7,  71,   7,1.02904, -24.6814,1.10000,0.90000,1.10000,0.90000
110259,'KATY 56 1   ',  69.0000,1,   7,  71,   7,1.03399, -24.8660,1.10000,0.90000,1.10000,0.90000
110260,'KATY 57 1   ',  69.0000,1,   7,  71,   7,1.02514, -25.1058,1.10000,0.90000,1.10000,0.90000
110261,'CYPRESS 22 1',  69.0000,1,   7,  71,   7,1.02007, -25.1735,1.10000,0.90000,1.10000,0.90000
110262,'CYPRESS 23 1', 138.0000,1,   7,  71,   7,1.01552, -20.9224,1.10000,0.90000,1.10000,0.90000
110263,'CYPRESS 23 2',  69.0000,1,   7,  71,   7,1.01992, -25.1062,1.10000,0.90000,1.10000,0.90000
110264,'CYPRESS 24 1',  69.0000,1,   7,  71,   7,1.02653, -25.2864,1.10000,0.90000,1.10000,0.90000
110265,'KATY 58 1   ',  69.0000,1,   7,  71,   7,1.02274, -24.9770,1.10000,0.90000,1.10000,0.90000
110266,'KATY 59 1   ',  69.0000,1,   7,  71,   7,1.03475, -24.6899,1.10000,0.90000,1.10000,0.90000
110267,'KATY 60 1   ',  69.0000,1,   7,  71,   7,1.03703, -25.0622,1.10000,0.90000,1.10000,0.90000
110268,'KATY 61 1   ',  69.0000,1,   7,  71,   7,1.02902, -25.5040,1.10000,0.90000,1.10000,0.90000
110269,'CYPRESS 25 1',  69.0000,1,   7,  71,   7,1.01955, -25.3204,1.10000,0.90000,1.10000,0.90000
110270,'CYPRESS 26 1',  69.0000,1,   7,  71,   7,1.01847, -24.7662,1.10000,0.90000,1.10000,0.90000
110271,'KATY 62 1   ',  69.0000,1,   7,  71,   7,1.02725, -24.1031,1.10000,0.90000,1.10000,0.90000
110272,'KATY 63 1   ',  69.0000,1,   7,  71,   7,1.02896, -24.4662,1.10000,0.90000,1.10000,0.90000
110273,'KATY 64 1   ', 138.0000,1,   7,  71,   7,1.02384, -23.1941,1.10000,0.90000,1.10000,0.90000
110274,'KATY 64 2   ',  69.0000,1,   7,  71,   7,1.02884, -24.3455,1.10000,0.90000,1.10000,0.90000
110275,'CYPRESS 27 1',  69.0000,1,   7,  71,   7,1.02517, -25.3980,1.10000,0.90000,1.10000,0.90000
110276,'KATY 65 1   ',  69.0000,1,   7,  71,   7,1.03363, -24.7024,1.10000,0.90000,1.10000,0.90000
110277,'KATY 66 1   ',  69.0000,1,   7,  71,   7,1.02554, -25.4206,1.10000,0.90000,1.10000,0.90000
110278,'CYPRESS 28 1',  69.0000,1,   7,  71,   7,1.01953, -25.0515,1.10000,0.90000,1.10000,0.90000
110279,'KATY 67 1   ',  69.0000,1,   7,  71,   7,1.03050, -24.3623,1.10000,0.90000,1.10000,0.90000
110280,'CYPRESS 29 1',  69.0000,1,   7,  71,   7,1.02373, -25.4356,1.10000,0.90000,1.10000,0.90000
110281,'CYPRESS 30 1',  69.0000,1,   7,  71,   7,1.02415, -25.2903,1.10000,0.90000,1.10000,0.90000
110282,'KATY 68 1   ',  69.0000,1,   7,  71,   7,1.02924, -24.3386,1.10000,0.90000,1.10000,0.90000
110283,'KATY 69 1   ',  69.0000,1,   7,  71,   7,1.03037, -24.7667,1.10000,0.90000,1.10000,0.90000
110284,'KATY 70 1   ',  69.0000,1,   7,  71,   7,1.02788, -24.3097,1.10000,0.90000,1.10000,0.90000
110285,'KATY 71 1   ',  69.0000,1,   7,  71,   7,1.03220, -24.4802,1.10000,0.90000,1.10000,0.90000
110286,'CYPRESS 31 1',  69.0000,1,   7,  71,   7,1.02551, -25.4855,1.10000,0.90000,1.10000,0.90000
110287,'KATY 72 1   ',  69.0000,1,   7,  71,   7,1.02939, -24.5377,1.10000,0.90000,1.10000,0.90000
110288,'HITCHCOCK ~1',  69.0000,1,   7,  71,   7,1.01844, -23.7460,1.10000,0.90000,1.10000,0.90000
110289,'HITCHCOCK ~2', 138.0000,1,   7,  71,   7,1.01950, -24.6212,1.10000,0.90000,1.10000,0.90000
110290,'HITCHCOCK ~3',  69.0000,1,   7,  71,   7,1.02347, -25.1800,1.10000,0.90000,1.10000,0.90000
110291,'HITCHCOCK ~4', 138.0000,1,   7,  71,   7,1.01742, -24.2019,1.10000,0.90000,1.10000,0.90000
110292,'HITCHCOCK ~5',  69.0000,1,   7,  71,   7,1.01817, -24.1850,1.10000,0.90000,1.10000,0.90000
110293,'NEW CANEY ~1', 138.0000,1,   7,  71,   7,1.01100, -25.9491,1.10000,0.90000,1.10000,0.90000
110294,'NEW CANEY ~2',  69.0000,1,   7,  71,   7,1.01160, -26.3949,1.10000,0.90000,1.10000,0.90000
110295,'SPLENDORA ~1', 138.0000,1,   7,  71,   7,1.03618, -22.6559,1.10000,0.90000,1.10000,0.90000
110296,'SPLENDORA ~2',  69.0000,1,   7,  71,   7,1.01443, -26.3069,1.10000,0.90000,1.10000,0.90000
110297,'SPLENDORA ~3',  13.8000,1,   7,  71,   7,1.02797, -23.9961,1.10000,0.90000,1.10000,0.90000
110298,'SPLENDORA ~4',   1.0000,1,   7,  71,   7,1.02797, -23.9961,1.10000,0.90000,1.10000,0.90000